  
       XFOIL         Version 6.99
  
 Calculated polar for: NACA 9518                                       
  
 1 1 Reynolds number fixed          Mach number fixed         
  
 xtrf =   1.000 (top)        1.000 (bottom)  
 Mach =   0.000     Re =     1.000 e 6     Ncrit =   9.000
  
   alpha    CL        CD       CDp       CM     Top_Xtr  Bot_Xtr
  ------ -------- --------- --------- -------- -------- --------
   4.000   1.4326   0.01218   0.00678  -0.2380   0.5671   0.4655
